Info: SIMULATION PARAMETERS:
Info: TIMESTEP               2
Info: NUMBER OF STEPS        0
Info: STEPS PER CYCLE        10
Info: PERIODIC CELL BASIS 1  25.212 0 0
Info: PERIODIC CELL BASIS 2  0 22.533 0
Info: PERIODIC CELL BASIS 3  0 0 22.511
Info: PERIODIC CELL CENTER   -2.33143 1.1895 -0.0057687
Info: WRAPPING ALL CLUSTERS AROUND PERIODIC BOUNDARIES ON OUTPUT.
Info: FIRST LDB TIMESTEP     50
Info: LAST LDB TIMESTEP     -1
Info: HOM BACKGROUND SCALING 1
Info: PME BACKGROUND SCALING 1
Info: MIN ATOMS PER PATCH    40
Info: INITIAL TEMPERATURE    310
Info: CENTER OF MASS MOVING INITIALLY? NO
Info: DIELECTRIC             1
Info: EXCLUDE                SCALED ONE-FOUR
Info: 1-4 ELECTROSTATICS SCALED BY 1
Info: MODIFIED 1-4 VDW PARAMETERS WILL BE USED
Info: DCD FILENAME           butane.dcd
Info: DCD FREQUENCY          250
Info: DCD FIRST STEP         250
Info: DCD FILE WILL CONTAIN UNIT CELL DATA
Info: XST FILENAME           butane.xst
Info: XST FREQUENCY          250
Info: NO VELOCITY DCD OUTPUT
Info: NO FORCE DCD OUTPUT
Info: OUTPUT FILENAME        butane
Info: BINARY OUTPUT FILES WILL BE USED
Info: RESTART FILENAME       butane.restart
Info: RESTART FREQUENCY      500
Info: BINARY RESTART FILES WILL BE USED
Info: SWITCHING ACTIVE
Info: SWITCHING ON           10
Info: SWITCHING OFF          12
Info: PAIRLIST DISTANCE      14
Info: PAIRLIST SHRINK RATE   0.01
Info: PAIRLIST GROW RATE     0.01
Info: PAIRLIST TRIGGER       0.3
Info: PAIRLISTS PER CYCLE    2
Info: PAIRLISTS ENABLED
Info: MARGIN                 0.495
Info: HYDROGEN GROUP CUTOFF  2.5
Info: PATCH DIMENSION        16.995
Info: ENERGY OUTPUT STEPS    100
Info: CROSSTERM ENERGY INCLUDED IN DIHEDRAL
Info: TIMING OUTPUT STEPS    1000
Info: PRESSURE OUTPUT STEPS  100
Info: LANGEVIN DYNAMICS ACTIVE
Info: LANGEVIN TEMPERATURE   310
Info: LANGEVIN USING BBK INTEGRATOR
Info: LANGEVIN DAMPING COEFFICIENT IS 1 INVERSE PS
Info: LANGEVIN DYNAMICS NOT APPLIED TO HYDROGENS
Info: LANGEVIN PISTON PRESSURE CONTROL ACTIVE
Info:        TARGET PRESSURE IS 1.01325 BAR
Info:     OSCILLATION PERIOD IS 100 FS
Info:             DECAY TIME IS 50 FS
Info:     PISTON TEMPERATURE IS 310 K
Info:       PRESSURE CONTROL IS GROUP-BASED
Info:    INITIAL STRAIN RATE IS 0 0 0
Info:       CELL FLUCTUATION IS ISOTROPIC
Info: PARTICLE MESH EWALD (PME) ACTIVE
Info: PME TOLERANCE               1e-06
Info: PME EWALD COEFFICIENT       0.257952
Info: PME INTERPOLATION ORDER     4
Info: PME GRID DIMENSIONS         28 24 24
Info: PME MAXIMUM GRID SPACING    1
Info: FULL ELECTROSTATIC EVALUATION FREQUENCY      2
Info: USING VERLET I (r-RESPA) MTS SCHEME.
Info: C1 SPLITTING OF LONG RANGE ELECTROSTATICS
Info: PLACING ATOMS IN PATCHES BY HYDROGEN GROUPS
Info: RIGID BONDS TO HYDROGEN : ALL
Info:         ERROR TOLERANCE : 1e-08
Info:          MAX ITERATIONS : 100
Info: RIGID WATER USING SETTLE ALGORITHM
Info: RANDOM NUMBER SEED     1540335504
Info: USE HYDROGEN BONDS?    NO
Info: COORDINATE PDB         solvated_Butane.pdb
Info: STRUCTURE FILE         solvated_Butane.psf
Info: PARAMETER file: CHARMM format!
Info: PARAMETERS             toppar/par_all36m_prot.prm
Info: PARAMETERS             toppar/par_all36_na.prm
Info: PARAMETERS             toppar/par_all36_carb.prm
Info: PARAMETERS             toppar/par_all36_lipid.prm
Info: PARAMETERS             toppar/par_all36_cgenff.prm
Info: PARAMETERS             toppar_water_ions.str
Info: USING ARITHMETIC MEAN TO COMBINE L-J SIGMA PARAMETERS
Info: SUMMARY OF PARAMETERS:
Info: 953 BONDS
Info: 2799 ANGLES
Info: 6874 DIHEDRAL
Info: 196 IMPROPER
Info: 6 CROSSTERM
Info: 355 VDW
Info: 94 VDW_PAIRS
Info: 0 NBTHOLE_PAIRS
Info: STRUCTURE SUMMARY:
Info: 1124 ATOMS
Info: 753 BONDS
Info: 394 ANGLES
Info: 27 DIHEDRALS
Info: 0 IMPROPERS
Info: 0 CROSSTERMS
Info: 0 EXCLUSIONS
Info: 1120 RIGID BONDS
Info: 2252 DEGREES OF FREEDOM
Info: 374 HYDROGEN GROUPS
Info: 4 ATOMS IN LARGEST HYDROGEN GROUP
Info: 374 MIGRATION GROUPS
Info: 4 ATOMS IN LARGEST MIGRATION GROUP
Info: TOTAL MASS = 6723.82 amu
Info: TOTAL CHARGE = 0 e
Info: MASS DENSITY = 0.873081 g/cm^3
Info: ATOM DENSITY = 0.0878912 atoms/A^3
Info: ADDED 1174 IMPLICIT EXCLUSIONS
Info: NONBONDED TABLE R-SQUARED SPACING: 0.0625
Info: NONBONDED TABLE SIZE: 769 POINTS
Info: REMOVING COM VELOCITY 0.241639 0.157816 -0.0205032
TCL: Minimizing for 1000 steps
ETITLE: TS BOND ANGLE DIHED IMPRP ELECT VDW BOUNDARY MISC KINETIC TOTAL TEMP POTENTIAL TOTAL3 TEMPAVG PRESSURE GPRESSURE VOLUME PRESSAVG GPRESSAVG
ENERGY: 0 0.1419 0.6690 0.0789 0.0000 -3069.2332 69314.0274 0.0000 0.0000 0.0000 66245.6840 0.0000 66245.6840 66245.6840 0.0000 1520022.0302 1580318.4668 12788.5438 1520022.0302 1580318.4668
ENERGY: 200 1.1264 1.0492 0.0880 0.0000 -4332.6443 348.6394 0.0000 0.0000 0.0000 -3981.7412 0.0000 -3981.7412 -3981.7412 0.0000 14202.8671 -6168.5725 12788.5438 14202.8671 -6168.5725
ENERGY: 400 9.4903 5.5504 0.1475 0.0000 -4689.4062 514.1586 0.0000 0.0000 0.0000 -4160.0594 0.0000 -4160.0594 -4160.0594 0.0000 17898.9827 -4050.5747 12788.5438 17898.9827 -4050.5747
ENERGY: 600 0.4667 0.6909 0.0838 0.0000 -4786.8874 524.0216 0.0000 0.0000 0.0000 -4261.6244 0.0000 -4261.6244 -4261.6244 0.0000 18203.8053 -4421.7287 12788.5438 18203.8053 -4421.7287
ENERGY: 800 0.0643 0.3369 0.0938 0.0000 -4861.5293 552.2266 0.0000 0.0000 0.0000 -4308.8077 0.0000 -4308.8077 -4308.8077 0.0000 18979.5453 -4069.4446 12788.5438 18979.5453 -4069.4446
ENERGY: 1000 0.0481 0.3494 0.0985 0.0000 -4867.4679 537.6248 0.0000 0.0000 0.0000 -4329.3471 0.0000 -4329.3471 -4329.3471 0.0000 18643.6041 -4518.9767 12788.5438 18643.6041 -4518.9767
TCL: Running for 25000 steps
ETITLE: TS BOND ANGLE DIHED IMPRP ELECT VDW BOUNDARY MISC KINETIC TOTAL TEMP POTENTIAL TOTAL3 TEMPAVG PRESSURE GPRESSURE VOLUME PRESSAVG GPRESSAVG
ENERGY: 1000 0.0481 0.3494 0.0985 0.0000 -4867.4679 537.6248 0.0000 0.0000 675.5842 -3653.7629 301.9267 -4329.3471 -3654.1541 301.9267 -3266.6007 -3233.5226 12788.5438 -3266.6007 -3233.5226
ENERGY: 6000 0.9335 7.0714 1.1205 0.0000 -4000.9242 376.9941 0.0000 0.0000 690.9094 -2923.8953 308.7757 -3614.8047 -2922.3729 304.1397 -538.2274 -530.2498 11329.3267 83.4574 80.5648
ENERGY: 11000 0.1152 9.0703 0.8656 0.0000 -3877.2316 356.7633 0.0000 0.0000 676.2460 -2834.1713 302.2224 -3510.4172 -2833.0351 303.1097 311.5917 350.3405 11303.4837 -28.8643 -29.2920
ENERGY: 16000 0.3577 5.3952 0.3290 0.0000 -3958.2246 373.4184 0.0000 0.0000 677.1114 -2901.6127 302.6092 -3578.7242 -2900.7438 311.1305 562.7157 602.8209 10844.7243 -21.2234 -21.3732
ENERGY: 21000 0.1404 4.7945 2.3764 0.0000 -3929.3754 357.0880 0.0000 0.0000 672.5845 -2892.3915 300.5861 -3564.9761 -2890.2204 310.5406 -47.9920 -24.5432 11089.3562 -65.3522 -64.7390
ENERGY: 26000 0.1940 8.1606 1.2129 0.0000 -3890.8319 371.6010 0.0000 0.0000 706.9263 -2802.7371 315.9339 -3509.6634 -2802.2744 318.8274 394.6457 418.6505 11219.4103 91.6037 91.0991
