Info: SIMULATION PARAMETERS:
Info: TIMESTEP               2
Info: NUMBER OF STEPS        0
Info: STEPS PER CYCLE        10
Info: PERIODIC CELL BASIS 1  25.212 0 0
Info: PERIODIC CELL BASIS 2  0 22.533 0
Info: PERIODIC CELL BASIS 3  0 0 22.511
Info: PERIODIC CELL CENTER   -2.33143 1.1895 -0.0057687
Info: WRAPPING ALL CLUSTERS AROUND PERIODIC BOUNDARIES ON OUTPUT.
Info: FIRST LDB TIMESTEP     50
Info: LAST LDB TIMESTEP     -1
Info: HOM BACKGROUND SCALING 1
Info: PME BACKGROUND SCALING 1
Info: MIN ATOMS PER PATCH    40
Info: INITIAL TEMPERATURE    310
Info: CENTER OF MASS MOVING INITIALLY? NO
Info: DIELECTRIC             1
Info: EXCLUDE                SCALED ONE-FOUR
Info: 1-4 ELECTROSTATICS SCALED BY 1
Info: MODIFIED 1-4 VDW PARAMETERS WILL BE USED
Info: DCD FILENAME           Buta.dcd
Info: DCD FREQUENCY          250
Info: DCD FIRST STEP         250
Info: DCD FILE WILL CONTAIN UNIT CELL DATA
Info: XST FILENAME           Buta.xst
Info: XST FREQUENCY          250
Info: NO VELOCITY DCD OUTPUT
Info: NO FORCE DCD OUTPUT
Info: OUTPUT FILENAME        Buta
Info: BINARY OUTPUT FILES WILL BE USED
Info: RESTART FILENAME       Buta.restart
Info: RESTART FREQUENCY      500
Info: BINARY RESTART FILES WILL BE USED
Info: SWITCHING ACTIVE
Info: SWITCHING ON           10
Info: SWITCHING OFF          12
Info: PAIRLIST DISTANCE      14
Info: PAIRLIST SHRINK RATE   0.01
Info: PAIRLIST GROW RATE     0.01
Info: PAIRLIST TRIGGER       0.3
Info: PAIRLISTS PER CYCLE    2
Info: PAIRLISTS ENABLED
Info: MARGIN                 0.495
Info: HYDROGEN GROUP CUTOFF  2.5
Info: PATCH DIMENSION        16.995
Info: ENERGY OUTPUT STEPS    100
Info: CROSSTERM ENERGY INCLUDED IN DIHEDRAL
Info: TIMING OUTPUT STEPS    1000
Info: PRESSURE OUTPUT STEPS  100
Info: LANGEVIN DYNAMICS ACTIVE
Info: LANGEVIN TEMPERATURE   310
Info: LANGEVIN USING BBK INTEGRATOR
Info: LANGEVIN DAMPING COEFFICIENT IS 1 INVERSE PS
Info: LANGEVIN DYNAMICS NOT APPLIED TO HYDROGENS
Info: LANGEVIN PISTON PRESSURE CONTROL ACTIVE
Info:        TARGET PRESSURE IS 1.01325 BAR
Info:     OSCILLATION PERIOD IS 100 FS
Info:             DECAY TIME IS 50 FS
Info:     PISTON TEMPERATURE IS 310 K
Info:       PRESSURE CONTROL IS GROUP-BASED
Info:    INITIAL STRAIN RATE IS 0 0 0
Info:       CELL FLUCTUATION IS ISOTROPIC
Info: PARTICLE MESH EWALD (PME) ACTIVE
Info: PME TOLERANCE               1e-06
Info: PME EWALD COEFFICIENT       0.257952
Info: PME INTERPOLATION ORDER     4
Info: PME GRID DIMENSIONS         28 24 24
Info: PME MAXIMUM GRID SPACING    1
Info: FULL ELECTROSTATIC EVALUATION FREQUENCY      2
Info: USING VERLET I (r-RESPA) MTS SCHEME.
Info: C1 SPLITTING OF LONG RANGE ELECTROSTATICS
Info: PLACING ATOMS IN PATCHES BY HYDROGEN GROUPS
Info: RIGID BONDS TO HYDROGEN : ALL
Info:         ERROR TOLERANCE : 1e-08
Info:          MAX ITERATIONS : 100
Info: RIGID WATER USING SETTLE ALGORITHM
Info: RANDOM NUMBER SEED     1540334393
Info: USE HYDROGEN BONDS?    NO
Info: COORDINATE PDB         /home/kushagra/Downloads/Butane_autopsf.pdb
Info: STRUCTURE FILE         /home/kushagra/Downloads/Butane_autopsf.psf
Info: PARAMETER file: CHARMM format!
Info: PARAMETERS             /home/kushagra/Downloads/SolvateFiles/toppar/par_all36m_prot.prm
Info: PARAMETERS             /home/kushagra/Downloads/SolvateFiles/toppar/par_all36_na.prm
Info: PARAMETERS             /home/kushagra/Downloads/SolvateFiles/toppar/par_all36_carb.prm
Info: PARAMETERS             /home/kushagra/Downloads/SolvateFiles/toppar/par_all36_lipid.prm
Info: PARAMETERS             /home/kushagra/Downloads/SolvateFiles/toppar/par_all36_cgenff.prm
Info: PARAMETERS             /home/kushagra/Downloads/SolvateFiles/toppar_water_ions.str
Info: USING ARITHMETIC MEAN TO COMBINE L-J SIGMA PARAMETERS
Info: SUMMARY OF PARAMETERS:
Info: 953 BONDS
Info: 2799 ANGLES
Info: 6874 DIHEDRAL
Info: 196 IMPROPER
Info: 6 CROSSTERM
Info: 355 VDW
Info: 94 VDW_PAIRS
Info: 0 NBTHOLE_PAIRS
Info: STRUCTURE SUMMARY:
Info: 14 ATOMS
Info: 13 BONDS
Info: 24 ANGLES
Info: 27 DIHEDRALS
Info: 0 IMPROPERS
Info: 0 CROSSTERMS
Info: 0 EXCLUSIONS
Info: 10 RIGID BONDS
Info: 32 DEGREES OF FREEDOM
Info: 4 HYDROGEN GROUPS
Info: 4 ATOMS IN LARGEST HYDROGEN GROUP
Info: 4 MIGRATION GROUPS
Info: 4 ATOMS IN LARGEST MIGRATION GROUP
Info: TOTAL MASS = 58.124 amu
Info: TOTAL CHARGE = 0 e
Info: MASS DENSITY = 0.00754734 g/cm^3
Info: ATOM DENSITY = 0.00109473 atoms/A^3
Info: ADDED 64 IMPLICIT EXCLUSIONS
Info: NONBONDED TABLE R-SQUARED SPACING: 0.0625
Info: NONBONDED TABLE SIZE: 769 POINTS
Info: REMOVING COM VELOCITY 1.90817 -1.96088 -0.736611
TCL: Minimizing for 1000 steps
ETITLE: TS BOND ANGLE DIHED IMPRP ELECT VDW BOUNDARY MISC KINETIC TOTAL TEMP POTENTIAL TOTAL3 TEMPAVG PRESSURE GPRESSURE VOLUME PRESSAVG GPRESSAVG
ENERGY: 0 0.1419 0.6690 0.0789 0.0000 4.1780 -0.4707 0.0000 0.0000 0.0000 4.5970 0.0000 4.5970 4.5970 0.0000 139.1000 96.7640 12788.5438 139.1000 96.7640
ENERGY: 200 0.0072 0.2907 0.0921 0.0000 4.2114 -0.5909 0.0000 0.0000 0.0000 4.0105 0.0000 4.0105 4.0105 0.0000 21.7318 6.7959 12788.5438 21.7318 6.7959
ENERGY: 400 0.0100 0.2890 0.0920 0.0000 4.2117 -0.5921 0.0000 0.0000 0.0000 4.0106 0.0000 4.0106 4.0106 0.0000 18.1607 6.4413 12788.5438 18.1607 6.4413
ENERGY: 600 0.0088 0.2936 0.0917 0.0000 4.2056 -0.5903 0.0000 0.0000 0.0000 4.0094 0.0000 4.0094 4.0094 0.0000 19.2060 6.9428 12788.5438 19.2060 6.9428
ENERGY: 800 0.0094 0.2974 0.0916 0.0000 4.2000 -0.5886 0.0000 0.0000 0.0000 4.0098 0.0000 4.0098 4.0098 0.0000 18.5008 7.0779 12788.5438 18.5008 7.0779
ENERGY: 1000 0.0087 0.2946 0.0912 0.0000 4.2043 -0.5889 0.0000 0.0000 0.0000 4.0099 0.0000 4.0099 4.0099 0.0000 19.5712 7.9766 12788.5438 19.5712 7.9766
TCL: Running for 25000 steps
ETITLE: TS BOND ANGLE DIHED IMPRP ELECT VDW BOUNDARY MISC KINETIC TOTAL TEMP POTENTIAL TOTAL3 TEMPAVG PRESSURE GPRESSURE VOLUME PRESSAVG GPRESSAVG
ENERGY: 1000 0.0087 0.2946 0.0912 0.0000 4.2043 -0.5889 0.0000 0.0000 6.5482 10.5580 205.9494 4.0099 10.5559 205.9494 9.0696 9.4048 12788.5438 9.0696 9.4048
