Info: SIMULATION PARAMETERS:
Info: TIMESTEP               2
Info: NUMBER OF STEPS        50000
Info: STEPS PER CYCLE        20
Info: PERIODIC CELL BASIS 1  24.1355 0 0
Info: PERIODIC CELL BASIS 2  0 21.5709 0
Info: PERIODIC CELL BASIS 3  0 0 21.5499
Info: PERIODIC CELL CENTER   -2.33143 1.1895 -0.0057687
Info: WRAPPING WATERS AROUND PERIODIC BOUNDARIES ON OUTPUT.
Info: WRAPPING ALL CLUSTERS AROUND PERIODIC BOUNDARIES ON OUTPUT.
Info: FIRST LDB TIMESTEP     100
Info: LAST LDB TIMESTEP     -1
Info: HOM BACKGROUND SCALING 1
Info: PME BACKGROUND SCALING 1
Info: MIN ATOMS PER PATCH    40
Info: VELOCITY FILE          butane.vel
Info: CENTER OF MASS MOVING INITIALLY? NO
Info: DIELECTRIC             1
Info: EXCLUDE                SCALED ONE-FOUR
Info: 1-4 ELECTROSTATICS SCALED BY 1
Info: MODIFIED 1-4 VDW PARAMETERS WILL BE USED
Info: DCD FILENAME           final_butane.dcd
Info: DCD FREQUENCY          2500
Info: DCD FIRST STEP         2500
Info: DCD FILE WILL CONTAIN UNIT CELL DATA
Info: XST FILENAME           final_butane.xst
Info: XST FREQUENCY          5000
Info: NO VELOCITY DCD OUTPUT
Info: NO FORCE DCD OUTPUT
Info: OUTPUT FILENAME        final_butane
Info: BINARY OUTPUT FILES WILL BE USED
Info: RESTART FILENAME       final_butane.restart
Info: RESTART FREQUENCY      2500
Info: BINARY RESTART FILES WILL BE USED
Info: SWITCHING ACTIVE
Info: VDW FORCE SWITCHING ACTIVE
Info: SWITCHING ON           10
Info: SWITCHING OFF          12
Info: PAIRLIST DISTANCE      16
Info: PAIRLIST SHRINK RATE   0.01
Info: PAIRLIST GROW RATE     0.01
Info: PAIRLIST TRIGGER       0.3
Info: PAIRLISTS PER CYCLE    2
Info: PAIRLISTS ENABLED
Info: MARGIN                 0.555
Info: HYDROGEN GROUP CUTOFF  2.5
Info: PATCH DIMENSION        19.055
Info: ENERGY OUTPUT STEPS    500
Info: CROSSTERM ENERGY INCLUDED IN DIHEDRAL
Info: TIMING OUTPUT STEPS    1000
Info: LANGEVIN DYNAMICS ACTIVE
Info: LANGEVIN TEMPERATURE   303.15
Info: LANGEVIN USING BBK INTEGRATOR
Info: LANGEVIN DAMPING COEFFICIENT IS 1 INVERSE PS
Info: LANGEVIN DYNAMICS NOT APPLIED TO HYDROGENS
Info: LANGEVIN PISTON PRESSURE CONTROL ACTIVE
Info:        TARGET PRESSURE IS 1.01325 BAR
Info:     OSCILLATION PERIOD IS 50 FS
Info:             DECAY TIME IS 25 FS
Info:     PISTON TEMPERATURE IS 303.15 K
Info:       PRESSURE CONTROL IS GROUP-BASED
Info:    INITIAL STRAIN RATE IS 2.91621e-05 2.91621e-05 2.91621e-05
Info:       CELL FLUCTUATION IS ISOTROPIC
Info: PARTICLE MESH EWALD (PME) ACTIVE
Info: PME TOLERANCE               1e-06
Info: PME EWALD COEFFICIENT       0.257952
Info: PME INTERPOLATION ORDER     6
Info: PME GRID DIMENSIONS         28 24 24
Info: PME MAXIMUM GRID SPACING    1
Info: FULL ELECTROSTATIC EVALUATION FREQUENCY      1
Info: USING VERLET I (r-RESPA) MTS SCHEME.
Info: C1 SPLITTING OF LONG RANGE ELECTROSTATICS
Info: PLACING ATOMS IN PATCHES BY HYDROGEN GROUPS
Info: RIGID BONDS TO HYDROGEN : ALL
Info:         ERROR TOLERANCE : 1e-08
Info:          MAX ITERATIONS : 100
Info: RIGID WATER USING SETTLE ALGORITHM
Info: RANDOM NUMBER SEED     1540336289
Info: USE HYDROGEN BONDS?    NO
Info: COORDINATE PDB         solvated_Butane.pdb
Info: STRUCTURE FILE         solvated_Butane.psf
Info: PARAMETER file: CHARMM format!
Info: PARAMETERS             toppar/par_all36m_prot.prm
Info: PARAMETERS             toppar/par_all36_na.prm
Info: PARAMETERS             toppar/par_all36_carb.prm
Info: PARAMETERS             toppar/par_all36_lipid.prm
Info: PARAMETERS             toppar/par_all36_cgenff.prm
Info: PARAMETERS             toppar_water_ions.str
Info: USING ARITHMETIC MEAN TO COMBINE L-J SIGMA PARAMETERS
Info: BINARY COORDINATES     butane.coor
Info: SUMMARY OF PARAMETERS:
Info: 953 BONDS
Info: 2799 ANGLES
Info: 6874 DIHEDRAL
Info: 196 IMPROPER
Info: 6 CROSSTERM
Info: 355 VDW
Info: 94 VDW_PAIRS
Info: 0 NBTHOLE_PAIRS
Info: STRUCTURE SUMMARY:
Info: 1124 ATOMS
Info: 753 BONDS
Info: 394 ANGLES
Info: 27 DIHEDRALS
Info: 0 IMPROPERS
Info: 0 CROSSTERMS
Info: 0 EXCLUSIONS
Info: 1120 RIGID BONDS
Info: 2252 DEGREES OF FREEDOM
Info: 374 HYDROGEN GROUPS
Info: 4 ATOMS IN LARGEST HYDROGEN GROUP
Info: 374 MIGRATION GROUPS
Info: 4 ATOMS IN LARGEST MIGRATION GROUP
Info: TOTAL MASS = 6723.82 amu
Info: TOTAL CHARGE = 0 e
Info: MASS DENSITY = 0.995189 g/cm^3
Info: ATOM DENSITY = 0.100184 atoms/A^3
Info: ADDED 1174 IMPLICIT EXCLUSIONS
Info: NONBONDED TABLE R-SQUARED SPACING: 0.0625
Info: NONBONDED TABLE SIZE: 769 POINTS
Info: REMOVING COM VELOCITY -0.0316368 0.252464 0.447595
TCL: Original numsteps 50000 will be ignored.
TCL: Running for 50000 steps
ETITLE: TS BOND ANGLE DIHED IMPRP ELECT VDW BOUNDARY MISC KINETIC TOTAL TEMP POTENTIAL TOTAL3 TEMPAVG PRESSURE GPRESSURE VOLUME PRESSAVG GPRESSAVG
ENERGY: 0 0.1940 8.1606 1.2129 0.0000 -3890.8296 384.1399 0.0000 0.0000 704.7754 -2792.3468 314.9726 -3497.1222 -2790.8853 314.9726 481.6935 483.4779 11219.4103 481.6935 483.4779
ENERGY: 10000 0.4454 13.2830 1.4266 0.0000 -3967.3777 404.3855 0.0000 0.0000 665.8079 -2882.0292 297.5575 -3547.8371 -2880.9186 305.9775 257.1323 238.8490 11283.9910 5.8104 5.6554
ENERGY: 20000 0.2513 11.5295 0.9403 0.0000 -3990.3299 391.6906 0.0000 0.0000 658.2710 -2927.6471 294.1892 -3585.9181 -2926.5319 299.2522 396.9407 382.4857 10929.6695 23.0771 23.1048
ENERGY: 30000 0.8295 9.0287 2.3234 0.0000 -3978.8511 397.2645 0.0000 0.0000 674.9278 -2894.4772 301.6333 -3569.4050 -2893.1399 305.2789 71.2484 71.7719 11187.0697 -16.8289 -16.9081
ENERGY: 40000 0.6477 6.6476 0.5828 0.0000 -4039.1487 427.6386 0.0000 0.0000 686.1198 -2917.5123 306.6352 -3603.6321 -2916.2231 296.8916 829.8963 827.8332 11244.3860 -41.1536 -40.3402
ENERGY: 50000 0.8483 6.4464 3.7729 0.0000 -3987.9507 389.6085 0.0000 0.0000 675.7992 -2911.4754 302.0228 -3587.2746 -2910.4030 300.2696 113.7245 126.9471 11168.1916 19.8490 20.7528
