Info: SIMULATION PARAMETERS:
Info: TIMESTEP               2
Info: NUMBER OF STEPS        0
Info: STEPS PER CYCLE        20
Info: FIRST LDB TIMESTEP     100
Info: LAST LDB TIMESTEP     -1
Info: HOM BACKGROUND SCALING 1
Info: MIN ATOMS PER PATCH    40
Info: INITIAL TEMPERATURE    310
Info: CENTER OF MASS MOVING INITIALLY? NO
Info: DIELECTRIC             1
Info: EXCLUDE                SCALED ONE-FOUR
Info: 1-4 ELECTROSTATICS SCALED BY 1
Info: MODIFIED 1-4 VDW PARAMETERS WILL BE USED
Info: NO DCD TRAJECTORY OUTPUT
Info: XST FILENAME           2cyhsemi.xst
Info: XST FREQUENCY          1000
Info: NO VELOCITY DCD OUTPUT
Info: NO FORCE DCD OUTPUT
Info: OUTPUT FILENAME        2cyhsemi
Info: BINARY OUTPUT FILES WILL BE USED
Info: RESTART FILENAME       2cyhsemi.restart
Info: RESTART FREQUENCY      500
Info: BINARY RESTART FILES WILL BE USED
Info: SWITCHING ACTIVE
Info: VDW FORCE SWITCHING ACTIVE
Info: SWITCHING ON           10
Info: SWITCHING OFF          12
Info: PAIRLIST DISTANCE      16
Info: PAIRLIST SHRINK RATE   0.01
Info: PAIRLIST GROW RATE     0.01
Info: PAIRLIST TRIGGER       0.3
Info: PAIRLISTS PER CYCLE    2
Info: PAIRLISTS ENABLED
Info: MARGIN                 0
Info: HYDROGEN GROUP CUTOFF  2.5
Info: PATCH DIMENSION        18.5
Info: ENERGY OUTPUT STEPS    125
Info: CROSSTERM ENERGY INCLUDED IN DIHEDRAL
Info: TIMING OUTPUT STEPS    1000
Info: LANGEVIN DYNAMICS ACTIVE
Info: LANGEVIN TEMPERATURE   310
Info: LANGEVIN USING BBK INTEGRATOR
Info: LANGEVIN DAMPING COEFFICIENT IS 1 INVERSE PS
Info: LANGEVIN DYNAMICS NOT APPLIED TO HYDROGENS
Info: VELOCITY REASSIGNMENT FREQ  500
Info: VELOCITY REASSIGNMENT TEMP  310
Info: USING VERLET I (r-RESPA) MTS SCHEME.
Info: C1 SPLITTING OF LONG RANGE ELECTROSTATICS
Info: PLACING ATOMS IN PATCHES BY HYDROGEN GROUPS
Info: RIGID BONDS TO HYDROGEN : ALL
Info:         ERROR TOLERANCE : 1e-08
Info:          MAX ITERATIONS : 100
Info: RIGID WATER USING SETTLE ALGORITHM
Info: RANDOM NUMBER SEED     1540373627
Info: USE HYDROGEN BONDS?    NO
Info: COORDINATE PDB         ./2cyh_autopsf.pdb
Info: STRUCTURE FILE         ./2cyh_autopsf.psf
Info: PARAMETER file: CHARMM format!
Info: PARAMETERS             toppar/par_all36m_prot.prm
Info: PARAMETERS             toppar/par_all36_na.prm
Info: PARAMETERS             toppar/par_all36_carb.prm
Info: PARAMETERS             toppar/par_all36_lipid.prm
Info: PARAMETERS             toppar/par_all36_cgenff.prm
Info: PARAMETERS             toppar_water_ions.str
Info: USING ARITHMETIC MEAN TO COMBINE L-J SIGMA PARAMETERS
Info: SUMMARY OF PARAMETERS:
Info: 953 BONDS
Info: 2799 ANGLES
Info: 6874 DIHEDRAL
Info: 196 IMPROPER
Info: 6 CROSSTERM
Info: 355 VDW
Info: 94 VDW_PAIRS
Info: 0 NBTHOLE_PAIRS
Info: STRUCTURE SUMMARY:
Info: 2774 ATOMS
Info: 2715 BONDS
Info: 4668 ANGLES
Info: 6695 DIHEDRALS
Info: 439 IMPROPERS
Info: 162 CROSSTERMS
Info: 0 EXCLUSIONS
Info: 1503 RIGID BONDS
Info: 6819 DEGREES OF FREEDOM
Info: 1358 HYDROGEN GROUPS
Info: 4 ATOMS IN LARGEST HYDROGEN GROUP
Info: 1358 MIGRATION GROUPS
Info: 4 ATOMS IN LARGEST MIGRATION GROUP
Info: TOTAL MASS = 19635.9 amu
Info: TOTAL CHARGE = 1 e
Info: ADDED 13964 IMPLICIT EXCLUSIONS
Info: NONBONDED TABLE R-SQUARED SPACING: 0.0625
Info: NONBONDED TABLE SIZE: 769 POINTS
Info: ORIGINAL ATOMS MINMAX IS -3.03 -7.034 -7.407  40.2 32.435 32.49
Info: ADJUSTED ATOMS MINMAX IS 0.260625 3.53663 -0.699125  32.0044 28.5904 28.0321
Info: REMOVING COM VELOCITY 0.190703 0.142274 0.0963529
TCL: Minimizing for 10000 steps
ETITLE: TS BOND ANGLE DIHED IMPRP ELECT VDW BOUNDARY MISC KINETIC TOTAL TEMP POTENTIAL TOTAL3 TEMPAVG
ENERGY: 0 374.2785 601.1779 1412.2443 13.8628 -4317.1735 -347.7844 0.0000 0.0000 0.0000 -2263.3944 0.0000 -2263.3944 -2263.3944 0.0000
ENERGY: 2000 144.0684 462.9938 1375.4008 22.4400 -5544.6355 -558.5698 0.0000 0.0000 0.0000 -4098.3022 0.0000 -4098.3022 -4098.3022 0.0000
ENERGY: 4000 144.9404 466.3642 1371.5018 23.4755 -5571.5557 -553.3089 0.0000 0.0000 0.0000 -4118.5827 0.0000 -4118.5827 -4118.5827 0.0000
ENERGY: 6000 145.2456 467.3698 1368.4133 23.1717 -5578.6130 -555.7711 0.0000 0.0000 0.0000 -4130.1837 0.0000 -4130.1837 -4130.1837 0.0000
ENERGY: 8000 145.1697 465.2376 1364.4828 23.4377 -5641.3168 -553.7144 0.0000 0.0000 0.0000 -4196.7034 0.0000 -4196.7034 -4196.7034 0.0000
ENERGY: 10000 145.5360 465.5289 1364.1845 23.4755 -5667.0044 -549.7341 0.0000 0.0000 0.0000 -4218.0137 0.0000 -4218.0137 -4218.0137 0.0000
TCL: Running for 25000 steps
ETITLE: TS BOND ANGLE DIHED IMPRP ELECT VDW BOUNDARY MISC KINETIC TOTAL TEMP POTENTIAL TOTAL3 TEMPAVG
ENERGY: 10000 145.5360 465.5289 1364.1845 23.4755 -5667.0044 -549.7341 0.0000 0.0000 2132.3841 -2085.6296 314.7278 -4218.0137 -2086.4788 314.7278
ENERGY: 15000 511.4126 1495.2096 1573.7508 94.4624 -5379.7254 -423.0712 0.0000 0.0000 2084.4250 -43.5362 307.6493 -2127.9612 -29.4564 308.4994
ENERGY: 20000 553.0546 1505.3262 1598.5934 100.2316 -5523.9389 -411.0441 0.0000 0.0000 2116.9202 -60.8570 312.4454 -2177.7772 -36.9586 310.0715
ENERGY: 25000 577.2369 1504.3722 1588.0776 92.6075 -5517.0757 -433.5903 0.0000 0.0000 2101.2795 -87.0922 310.1370 -2188.3717 -58.5880 314.9000
ENERGY: 30000 532.2487 1494.2740 1586.4401 106.7264 -5528.6870 -428.6550 0.0000 0.0000 2111.1694 -126.4834 311.5967 -2237.6529 -88.5273 308.8553
ENERGY: 35000 527.7150 1409.3267 1606.0088 96.9235 -5574.1442 -389.2621 0.0000 0.0000 2122.4688 -200.9635 313.2644 -2323.4323 -159.3035 303.5464
