Info: SIMULATION PARAMETERS:
Info: TIMESTEP               2
Info: NUMBER OF STEPS        50000
Info: STEPS PER CYCLE        20
Info: FIRST LDB TIMESTEP     100
Info: LAST LDB TIMESTEP     -1
Info: HOM BACKGROUND SCALING 1
Info: MIN ATOMS PER PATCH    40
Info: VELOCITY FILE          2cyhsemi.vel
Info: CENTER OF MASS MOVING INITIALLY? NO
Info: DIELECTRIC             1
Info: EXCLUDE                SCALED ONE-FOUR
Info: 1-4 ELECTROSTATICS SCALED BY 1
Info: MODIFIED 1-4 VDW PARAMETERS WILL BE USED
Info: DCD FILENAME           2cyhfinal.dcd
Info: DCD FREQUENCY          2500
Info: DCD FIRST STEP         2500
Info: DCD FILE WILL CONTAIN UNIT CELL DATA
Info: XST FILENAME           2cyhfinal.xst
Info: XST FREQUENCY          5000
Info: NO VELOCITY DCD OUTPUT
Info: NO FORCE DCD OUTPUT
Info: OUTPUT FILENAME        2cyhfinal
Info: BINARY OUTPUT FILES WILL BE USED
Info: RESTART FILENAME       2cyhfinal.restart
Info: RESTART FREQUENCY      2500
Info: BINARY RESTART FILES WILL BE USED
Info: SWITCHING ACTIVE
Info: VDW FORCE SWITCHING ACTIVE
Info: SWITCHING ON           10
Info: SWITCHING OFF          12
Info: PAIRLIST DISTANCE      16
Info: PAIRLIST SHRINK RATE   0.01
Info: PAIRLIST GROW RATE     0.01
Info: PAIRLIST TRIGGER       0.3
Info: PAIRLISTS PER CYCLE    2
Info: PAIRLISTS ENABLED
Info: MARGIN                 0
Info: HYDROGEN GROUP CUTOFF  2.5
Info: PATCH DIMENSION        18.5
Info: ENERGY OUTPUT STEPS    500
Info: CROSSTERM ENERGY INCLUDED IN DIHEDRAL
Info: TIMING OUTPUT STEPS    1000
Info: LANGEVIN DYNAMICS ACTIVE
Info: LANGEVIN TEMPERATURE   303.15
Info: LANGEVIN USING BBK INTEGRATOR
Info: LANGEVIN DAMPING COEFFICIENT IS 1 INVERSE PS
Info: LANGEVIN DYNAMICS NOT APPLIED TO HYDROGENS
Info: USING VERLET I (r-RESPA) MTS SCHEME.
Info: C1 SPLITTING OF LONG RANGE ELECTROSTATICS
Info: PLACING ATOMS IN PATCHES BY HYDROGEN GROUPS
Info: RIGID BONDS TO HYDROGEN : ALL
Info:         ERROR TOLERANCE : 1e-08
Info:          MAX ITERATIONS : 100
Info: RIGID WATER USING SETTLE ALGORITHM
Info: RANDOM NUMBER SEED     1540374229
Info: USE HYDROGEN BONDS?    NO
Info: COORDINATE PDB         2cyh_autopsf.pdb
Info: STRUCTURE FILE         2cyh_autopsf.psf
Info: PARAMETER file: CHARMM format!
Info: PARAMETERS             toppar/par_all36m_prot.prm
Info: PARAMETERS             toppar/par_all36_na.prm
Info: PARAMETERS             toppar/par_all36_carb.prm
Info: PARAMETERS             toppar/par_all36_lipid.prm
Info: PARAMETERS             toppar/par_all36_cgenff.prm
Info: PARAMETERS             toppar_water_ions.str
Info: USING ARITHMETIC MEAN TO COMBINE L-J SIGMA PARAMETERS
Info: BINARY COORDINATES     2cyhsemi.coor
Info: SUMMARY OF PARAMETERS:
Info: 953 BONDS
Info: 2799 ANGLES
Info: 6874 DIHEDRAL
Info: 196 IMPROPER
Info: 6 CROSSTERM
Info: 355 VDW
Info: 94 VDW_PAIRS
Info: 0 NBTHOLE_PAIRS
Info: STRUCTURE SUMMARY:
Info: 2774 ATOMS
Info: 2715 BONDS
Info: 4668 ANGLES
Info: 6695 DIHEDRALS
Info: 439 IMPROPERS
Info: 162 CROSSTERMS
Info: 0 EXCLUSIONS
Info: 1503 RIGID BONDS
Info: 6819 DEGREES OF FREEDOM
Info: 1358 HYDROGEN GROUPS
Info: 4 ATOMS IN LARGEST HYDROGEN GROUP
Info: 1358 MIGRATION GROUPS
Info: 4 ATOMS IN LARGEST MIGRATION GROUP
Info: TOTAL MASS = 19635.9 amu
Info: TOTAL CHARGE = 1 e
Info: ADDED 13964 IMPLICIT EXCLUSIONS
Info: NONBONDED TABLE R-SQUARED SPACING: 0.0625
Info: NONBONDED TABLE SIZE: 769 POINTS
Info: ORIGINAL ATOMS MINMAX IS -2.47032 -3.32062 -6.43733  37.0836 31.1611 34.2575
Info: ADJUSTED ATOMS MINMAX IS 0.253553 2.86954 0.134924  32.061 28.4026 28.5606
Info: REMOVING COM VELOCITY 0.0807695 0.298655 0.10126
TCL: Original numsteps 50000 will be ignored.
TCL: Running for 50000 steps
ETITLE: TS BOND ANGLE DIHED IMPRP ELECT VDW BOUNDARY MISC KINETIC TOTAL TEMP POTENTIAL TOTAL3 TEMPAVG
ENERGY: 0 527.7150 1409.3267 1606.0088 96.9235 -5574.1442 -389.2621 0.0000 0.0000 2119.9534 -203.4789 312.8931 -2323.4323 -180.1820 312.8931
ENERGY: 10000 514.0324 1459.9656 1574.0096 88.1220 -5564.4204 -380.5331 0.0000 0.0000 2082.5442 -226.2798 307.3717 -2308.8240 -201.6470 303.2483
ENERGY: 20000 512.9222 1465.1071 1574.5416 96.0066 -5621.9859 -420.8422 0.0000 0.0000 2062.5696 -331.6810 304.4236 -2394.2506 -307.2805 301.6558
ENERGY: 30000 525.2121 1465.1802 1590.0885 99.2205 -5553.9023 -437.5714 0.0000 0.0000 2053.6906 -258.0819 303.1131 -2311.7725 -235.1103 306.0952
ENERGY: 40000 550.8082 1450.5841 1562.9847 93.0243 -5618.1019 -404.0383 0.0000 0.0000 2078.2111 -286.5279 306.7322 -2364.7390 -261.7016 305.2070
ENERGY: 50000 528.6220 1392.4975 1584.7464 101.1052 -5586.7147 -392.2814 0.0000 0.0000 1989.9427 -382.0823 293.7043 -2372.0250 -358.5143 298.5692
