Info: SIMULATION PARAMETERS:
Info: TIMESTEP               2
Info: NUMBER OF STEPS        0
Info: STEPS PER CYCLE        20
Info: FIRST LDB TIMESTEP     100
Info: LAST LDB TIMESTEP     -1
Info: HOM BACKGROUND SCALING 1
Info: MIN ATOMS PER PATCH    40
Info: INITIAL TEMPERATURE    310
Info: CENTER OF MASS MOVING INITIALLY? NO
Info: DIELECTRIC             1
Info: EXCLUDE                SCALED ONE-FOUR
Info: 1-4 ELECTROSTATICS SCALED BY 1
Info: MODIFIED 1-4 VDW PARAMETERS WILL BE USED
Info: NO DCD TRAJECTORY OUTPUT
Info: XST FILENAME           butaneunsol.xst
Info: XST FREQUENCY          1000
Info: NO VELOCITY DCD OUTPUT
Info: NO FORCE DCD OUTPUT
Info: OUTPUT FILENAME        butaneunsol
Info: BINARY OUTPUT FILES WILL BE USED
Info: RESTART FILENAME       butaneunsol.restart
Info: RESTART FREQUENCY      500
Info: BINARY RESTART FILES WILL BE USED
Info: SWITCHING ACTIVE
Info: VDW FORCE SWITCHING ACTIVE
Info: SWITCHING ON           10
Info: SWITCHING OFF          12
Info: PAIRLIST DISTANCE      16
Info: PAIRLIST SHRINK RATE   0.01
Info: PAIRLIST GROW RATE     0.01
Info: PAIRLIST TRIGGER       0.3
Info: PAIRLISTS PER CYCLE    2
Info: PAIRLISTS ENABLED
Info: MARGIN                 0
Info: HYDROGEN GROUP CUTOFF  2.5
Info: PATCH DIMENSION        18.5
Info: ENERGY OUTPUT STEPS    125
Info: CROSSTERM ENERGY INCLUDED IN DIHEDRAL
Info: TIMING OUTPUT STEPS    1000
Info: LANGEVIN DYNAMICS ACTIVE
Info: LANGEVIN TEMPERATURE   310
Info: LANGEVIN USING BBK INTEGRATOR
Info: LANGEVIN DAMPING COEFFICIENT IS 1 INVERSE PS
Info: LANGEVIN DYNAMICS NOT APPLIED TO HYDROGENS
Info: VELOCITY REASSIGNMENT FREQ  500
Info: VELOCITY REASSIGNMENT TEMP  310
Info: USING VERLET I (r-RESPA) MTS SCHEME.
Info: C1 SPLITTING OF LONG RANGE ELECTROSTATICS
Info: PLACING ATOMS IN PATCHES BY HYDROGEN GROUPS
Info: RIGID BONDS TO HYDROGEN : ALL
Info:         ERROR TOLERANCE : 1e-08
Info:          MAX ITERATIONS : 100
Info: RIGID WATER USING SETTLE ALGORITHM
Info: RANDOM NUMBER SEED     1540339894
Info: USE HYDROGEN BONDS?    NO
Info: COORDINATE PDB         ./Butane_autopsf.pdb
Info: STRUCTURE FILE         ./Butane_autopsf.psf
Info: PARAMETER file: CHARMM format!
Info: PARAMETERS             toppar/par_all36m_prot.prm
Info: PARAMETERS             toppar/par_all36_na.prm
Info: PARAMETERS             toppar/par_all36_carb.prm
Info: PARAMETERS             toppar/par_all36_lipid.prm
Info: PARAMETERS             toppar/par_all36_cgenff.prm
Info: PARAMETERS             toppar_water_ions.str
Info: USING ARITHMETIC MEAN TO COMBINE L-J SIGMA PARAMETERS
Info: SUMMARY OF PARAMETERS:
Info: 953 BONDS
Info: 2799 ANGLES
Info: 6874 DIHEDRAL
Info: 196 IMPROPER
Info: 6 CROSSTERM
Info: 355 VDW
Info: 94 VDW_PAIRS
Info: 0 NBTHOLE_PAIRS
Info: STRUCTURE SUMMARY:
Info: 14 ATOMS
Info: 13 BONDS
Info: 24 ANGLES
Info: 27 DIHEDRALS
Info: 0 IMPROPERS
Info: 0 CROSSTERMS
Info: 0 EXCLUSIONS
Info: 10 RIGID BONDS
Info: 32 DEGREES OF FREEDOM
Info: 4 HYDROGEN GROUPS
Info: 4 ATOMS IN LARGEST HYDROGEN GROUP
Info: 4 MIGRATION GROUPS
Info: 4 ATOMS IN LARGEST MIGRATION GROUP
Info: TOTAL MASS = 58.124 amu
Info: TOTAL CHARGE = 0 e
Info: ADDED 64 IMPLICIT EXCLUSIONS
Info: NONBONDED TABLE R-SQUARED SPACING: 0.0625
Info: NONBONDED TABLE SIZE: 769 POINTS
Info: ORIGINAL ATOMS MINMAX IS -4.979 -0.076 -1.356  0.258 2.652 1.356
Info: ADJUSTED ATOMS MINMAX IS -4.95087 -0.015625 -1.26987  0.227875 2.59063 1.26887
Info: REMOVING COM VELOCITY 0.627653 0.777452 1.59216
TCL: Minimizing for 10000 steps
ETITLE: TS BOND ANGLE DIHED IMPRP ELECT VDW BOUNDARY MISC KINETIC TOTAL TEMP POTENTIAL TOTAL3 TEMPAVG
ENERGY: 0 0.1419 0.6690 0.0789 0.0000 3.7636 -0.4696 0.0000 0.0000 0.0000 4.1838 0.0000 4.1838 4.1838 0.0000
ENERGY: 2000 0.0116 0.3546 0.0899 0.0000 3.7772 -0.5835 0.0000 0.0000 0.0000 3.6498 0.0000 3.6498 3.6498 0.0000
ENERGY: 4000 0.0075 0.3011 0.0915 0.0000 3.7868 -0.5857 0.0000 0.0000 0.0000 3.6013 0.0000 3.6013 3.6013 0.0000
ENERGY: 6000 0.0094 0.3001 0.0918 0.0000 3.7877 -0.5871 0.0000 0.0000 0.0000 3.6019 0.0000 3.6019 3.6019 0.0000
ENERGY: 8000 0.0075 0.3017 0.0914 0.0000 3.7865 -0.5856 0.0000 0.0000 0.0000 3.6015 0.0000 3.6015 3.6015 0.0000
ENERGY: 10000 0.0069 0.3081 0.0934 0.0000 3.7872 -0.5884 0.0000 0.0000 0.0000 3.6073 0.0000 3.6073 3.6073 0.0000
TCL: Running for 25000 steps
ETITLE: TS BOND ANGLE DIHED IMPRP ELECT VDW BOUNDARY MISC KINETIC TOTAL TEMP POTENTIAL TOTAL3 TEMPAVG
ENERGY: 10000 0.0069 0.3081 0.0934 0.0000 3.7872 -0.5884 0.0000 0.0000 9.9065 13.5138 311.5732 3.6073 13.5099 311.5732
ENERGY: 15000 0.4063 6.0473 3.1381 0.0000 4.0553 -0.2311 0.0000 0.0000 10.9423 24.3583 344.1510 13.4160 24.8078 315.0587
ENERGY: 20000 0.7652 2.9085 0.1332 0.0000 3.9102 -0.5413 0.0000 0.0000 8.5442 15.7200 268.7277 7.1758 15.8736 204.0751
ENERGY: 25000 0.4340 10.4863 0.2748 0.0000 4.0782 -0.4347 0.0000 0.0000 6.5716 21.4102 206.6863 14.8386 21.3537 323.2559
ENERGY: 30000 0.3736 4.9548 0.3349 0.0000 4.2241 -0.5362 0.0000 0.0000 9.6314 18.9826 302.9228 9.3511 19.6912 245.6581
ENERGY: 35000 0.1403 5.3091 0.7406 0.0000 3.4994 -0.3754 0.0000 0.0000 9.4343 18.7483 296.7220 9.3140 19.9018 239.4494
