Info: SIMULATION PARAMETERS:
Info: TIMESTEP               2
Info: NUMBER OF STEPS        50000
Info: STEPS PER CYCLE        20
Info: FIRST LDB TIMESTEP     100
Info: LAST LDB TIMESTEP     -1
Info: HOM BACKGROUND SCALING 1
Info: MIN ATOMS PER PATCH    40
Info: VELOCITY FILE          butaneunsol.vel
Info: CENTER OF MASS MOVING INITIALLY? NO
Info: DIELECTRIC             1
Info: EXCLUDE                SCALED ONE-FOUR
Info: 1-4 ELECTROSTATICS SCALED BY 1
Info: MODIFIED 1-4 VDW PARAMETERS WILL BE USED
Info: DCD FILENAME           finalbutaunsol.dcd
Info: DCD FREQUENCY          2500
Info: DCD FIRST STEP         2500
Info: DCD FILE WILL CONTAIN UNIT CELL DATA
Info: XST FILENAME           finalbutaunsol.xst
Info: XST FREQUENCY          5000
Info: NO VELOCITY DCD OUTPUT
Info: NO FORCE DCD OUTPUT
Info: OUTPUT FILENAME        finalbutaunsol
Info: BINARY OUTPUT FILES WILL BE USED
Info: RESTART FILENAME       finalbutaunsol.restart
Info: RESTART FREQUENCY      2500
Info: BINARY RESTART FILES WILL BE USED
Info: SWITCHING ACTIVE
Info: VDW FORCE SWITCHING ACTIVE
Info: SWITCHING ON           10
Info: SWITCHING OFF          12
Info: PAIRLIST DISTANCE      16
Info: PAIRLIST SHRINK RATE   0.01
Info: PAIRLIST GROW RATE     0.01
Info: PAIRLIST TRIGGER       0.3
Info: PAIRLISTS PER CYCLE    2
Info: PAIRLISTS ENABLED
Info: MARGIN                 0
Info: HYDROGEN GROUP CUTOFF  2.5
Info: PATCH DIMENSION        18.5
Info: ENERGY OUTPUT STEPS    500
Info: CROSSTERM ENERGY INCLUDED IN DIHEDRAL
Info: TIMING OUTPUT STEPS    1000
Info: LANGEVIN DYNAMICS ACTIVE
Info: LANGEVIN TEMPERATURE   303.15
Info: LANGEVIN USING BBK INTEGRATOR
Info: LANGEVIN DAMPING COEFFICIENT IS 1 INVERSE PS
Info: LANGEVIN DYNAMICS NOT APPLIED TO HYDROGENS
Info: USING VERLET I (r-RESPA) MTS SCHEME.
Info: C1 SPLITTING OF LONG RANGE ELECTROSTATICS
Info: PLACING ATOMS IN PATCHES BY HYDROGEN GROUPS
Info: RIGID BONDS TO HYDROGEN : ALL
Info:         ERROR TOLERANCE : 1e-08
Info:          MAX ITERATIONS : 100
Info: RIGID WATER USING SETTLE ALGORITHM
Info: RANDOM NUMBER SEED     1540340183
Info: USE HYDROGEN BONDS?    NO
Info: COORDINATE PDB         Butane_autopsf.pdb
Info: STRUCTURE FILE         Butane_autopsf.psf
Info: PARAMETER file: CHARMM format!
Info: PARAMETERS             toppar/par_all36m_prot.prm
Info: PARAMETERS             toppar/par_all36_na.prm
Info: PARAMETERS             toppar/par_all36_carb.prm
Info: PARAMETERS             toppar/par_all36_lipid.prm
Info: PARAMETERS             toppar/par_all36_cgenff.prm
Info: PARAMETERS             toppar_water_ions.str
Info: USING ARITHMETIC MEAN TO COMBINE L-J SIGMA PARAMETERS
Info: BINARY COORDINATES     butaneunsol.coor
Info: SUMMARY OF PARAMETERS:
Info: 953 BONDS
Info: 2799 ANGLES
Info: 6874 DIHEDRAL
Info: 196 IMPROPER
Info: 6 CROSSTERM
Info: 355 VDW
Info: 94 VDW_PAIRS
Info: 0 NBTHOLE_PAIRS
Info: STRUCTURE SUMMARY:
Info: 14 ATOMS
Info: 13 BONDS
Info: 24 ANGLES
Info: 27 DIHEDRALS
Info: 0 IMPROPERS
Info: 0 CROSSTERMS
Info: 0 EXCLUSIONS
Info: 10 RIGID BONDS
Info: 32 DEGREES OF FREEDOM
Info: 4 HYDROGEN GROUPS
Info: 4 ATOMS IN LARGEST HYDROGEN GROUP
Info: 4 MIGRATION GROUPS
Info: 4 ATOMS IN LARGEST MIGRATION GROUP
Info: TOTAL MASS = 58.124 amu
Info: TOTAL CHARGE = 0 e
Info: ADDED 64 IMPLICIT EXCLUSIONS
Info: NONBONDED TABLE R-SQUARED SPACING: 0.0625
Info: NONBONDED TABLE SIZE: 769 POINTS
Info: ORIGINAL ATOMS MINMAX IS -0.898753 5.69997 -22.7013  2.90071 7.72091 -17.6471
Info: ADJUSTED ATOMS MINMAX IS -1.16255 5.51963 -21.9671  3.29606 7.88402 -18.3834
Info: REMOVING COM VELOCITY -1.60736 0.737763 -2.11768
TCL: Original numsteps 50000 will be ignored.
TCL: Running for 50000 steps
ETITLE: TS BOND ANGLE DIHED IMPRP ELECT VDW BOUNDARY MISC KINETIC TOTAL TEMP POTENTIAL TOTAL3 TEMPAVG
ENERGY: 0 0.1403 5.3091 0.7406 0.0000 3.4994 -0.3754 0.0000 0.0000 8.9054 18.2193 280.0863 9.3140 18.3035 280.0863
ENERGY: 10000 1.3666 8.8209 1.8847 0.0000 4.6447 -0.1102 0.0000 0.0000 9.4744 26.0810 297.9844 16.6066 26.1992 294.4596
ENERGY: 20000 0.0701 7.7303 2.1989 0.0000 4.6800 -0.5682 0.0000 0.0000 6.2992 20.4104 198.1203 14.1111 20.6279 289.8013
ENERGY: 30000 0.1076 5.7479 0.4925 0.0000 4.3572 -0.4842 0.0000 0.0000 10.1754 20.3964 320.0305 10.2210 20.6466 284.0619
ENERGY: 40000 1.2533 4.2305 2.8011 0.0000 4.3844 -0.4453 0.0000 0.0000 12.3496 24.5736 388.4137 12.2240 24.8231 347.0404
ENERGY: 50000 0.7654 3.2759 1.4627 0.0000 4.0185 -0.0682 0.0000 0.0000 10.4180 19.8722 327.6597 9.4543 20.0575 251.0676
