Info: SIMULATION PARAMETERS:
Info: TIMESTEP               2
Info: NUMBER OF STEPS        0
Info: STEPS PER CYCLE        20
Info: FIRST LDB TIMESTEP     100
Info: LAST LDB TIMESTEP     -1
Info: HOM BACKGROUND SCALING 1
Info: MIN ATOMS PER PATCH    40
Info: INITIAL TEMPERATURE    310
Info: CENTER OF MASS MOVING INITIALLY? NO
Info: DIELECTRIC             1
Info: EXCLUDE                SCALED ONE-FOUR
Info: 1-4 ELECTROSTATICS SCALED BY 1
Info: MODIFIED 1-4 VDW PARAMETERS WILL BE USED
Info: NO DCD TRAJECTORY OUTPUT
Info: XST FILENAME           NaClminim.xst
Info: XST FREQUENCY          1000
Info: NO VELOCITY DCD OUTPUT
Info: NO FORCE DCD OUTPUT
Info: OUTPUT FILENAME        NaClminim
Info: BINARY OUTPUT FILES WILL BE USED
Info: RESTART FILENAME       NaClminim.restart
Info: RESTART FREQUENCY      500
Info: BINARY RESTART FILES WILL BE USED
Info: SWITCHING ACTIVE
Info: VDW FORCE SWITCHING ACTIVE
Info: SWITCHING ON           10
Info: SWITCHING OFF          12
Info: PAIRLIST DISTANCE      16
Info: PAIRLIST SHRINK RATE   0.01
Info: PAIRLIST GROW RATE     0.01
Info: PAIRLIST TRIGGER       0.3
Info: PAIRLISTS PER CYCLE    2
Info: PAIRLISTS ENABLED
Info: MARGIN                 0
Info: HYDROGEN GROUP CUTOFF  2.5
Info: PATCH DIMENSION        18.5
Info: ENERGY OUTPUT STEPS    125
Info: CROSSTERM ENERGY INCLUDED IN DIHEDRAL
Info: TIMING OUTPUT STEPS    1000
Info: LANGEVIN DYNAMICS ACTIVE
Info: LANGEVIN TEMPERATURE   310
Info: LANGEVIN USING BBK INTEGRATOR
Info: LANGEVIN DAMPING COEFFICIENT IS 1 INVERSE PS
Info: LANGEVIN DYNAMICS NOT APPLIED TO HYDROGENS
Info: VELOCITY REASSIGNMENT FREQ  500
Info: VELOCITY REASSIGNMENT TEMP  310
Info: USING VERLET I (r-RESPA) MTS SCHEME.
Info: C1 SPLITTING OF LONG RANGE ELECTROSTATICS
Info: PLACING ATOMS IN PATCHES BY HYDROGEN GROUPS
Info: RIGID BONDS TO HYDROGEN : ALL
Info:         ERROR TOLERANCE : 1e-08
Info:          MAX ITERATIONS : 100
Info: RIGID WATER USING SETTLE ALGORITHM
Info: RANDOM NUMBER SEED     1541864368
Info: USE HYDROGEN BONDS?    NO
Info: COORDINATE PDB         ./NaClsolvate.pdb
Info: STRUCTURE FILE         ./NaClsolvate.psf
Info: PARAMETER file: CHARMM format!
Info: PARAMETERS             toppar/par_all36m_prot.prm
Info: PARAMETERS             toppar/par_all36_na.prm
Info: PARAMETERS             toppar/par_all36_carb.prm
Info: PARAMETERS             toppar/par_all36_lipid.prm
Info: PARAMETERS             toppar/par_all36_cgenff.prm
Info: PARAMETERS             toppar_water_ions.str
Info: USING ARITHMETIC MEAN TO COMBINE L-J SIGMA PARAMETERS
Info: SUMMARY OF PARAMETERS:
Info: 953 BONDS
Info: 2799 ANGLES
Info: 6874 DIHEDRAL
Info: 196 IMPROPER
Info: 6 CROSSTERM
Info: 355 VDW
Info: 94 VDW_PAIRS
Info: 0 NBTHOLE_PAIRS
Info: STRUCTURE SUMMARY:
Info: 743 ATOMS
Info: 494 BONDS
Info: 247 ANGLES
Info: 0 DIHEDRALS
Info: 0 IMPROPERS
Info: 0 CROSSTERMS
Info: 0 EXCLUSIONS
Info: 741 RIGID BONDS
Info: 1488 DEGREES OF FREEDOM
Info: 249 HYDROGEN GROUPS
Info: 3 ATOMS IN LARGEST HYDROGEN GROUP
Info: 249 MIGRATION GROUPS
Info: 3 ATOMS IN LARGEST MIGRATION GROUP
Info: TOTAL MASS = 4508.24 amu
Info: TOTAL CHARGE = 0 e
Info: ADDED 741 IMPLICIT EXCLUSIONS
Info: NONBONDED TABLE R-SQUARED SPACING: 0.0625
Info: NONBONDED TABLE SIZE: 769 POINTS
Info: ORIGINAL ATOMS MINMAX IS -12.982 -8.794 -9.804  8.147 11.221 9.964
Info: ADJUSTED ATOMS MINMAX IS -12.6236 -8.33237 -9.58162  7.98262 10.6114 9.76462
Info: REMOVING COM VELOCITY -0.458769 -0.0662825 -0.0416104
TCL: Minimizing for 10000 steps
ETITLE: TS BOND ANGLE DIHED IMPRP ELECT VDW BOUNDARY MISC KINETIC TOTAL TEMP POTENTIAL TOTAL3 TEMPAVG
ENERGY: 0 0.0000 0.0000 0.0000 0.0000 -4060.2153 99999999999.9999 0.0000 0.0000 0.0000 99999999999.9999 0.0000 99999999999.9999 99999999999.9999 0.0000
ENERGY: 2000 0.0000 0.0000 0.0000 0.0000 -3595.3631 507.9417 0.0000 0.0000 0.0000 -3087.4214 0.0000 -3087.4214 -3087.4214 0.0000
ENERGY: 4000 0.0000 0.0000 0.0000 0.0000 -3594.4773 506.0691 0.0000 0.0000 0.0000 -3088.4082 0.0000 -3088.4082 -3088.4082 0.0000
ENERGY: 6000 0.0000 0.0000 0.0000 0.0000 -3593.1899 506.4821 0.0000 0.0000 0.0000 -3086.7078 0.0000 -3086.7078 -3086.7078 0.0000
ENERGY: 8000 0.0000 0.0000 0.0000 0.0000 -3593.8535 506.6822 0.0000 0.0000 0.0000 -3087.1712 0.0000 -3087.1712 -3087.1712 0.0000
ENERGY: 10000 0.0000 0.0000 0.0000 0.0000 -3594.4768 506.0682 0.0000 0.0000 0.0000 -3088.4086 0.0000 -3088.4086 -3088.4086 0.0000
TCL: Running for 25000 steps
ETITLE: TS BOND ANGLE DIHED IMPRP ELECT VDW BOUNDARY MISC KINETIC TOTAL TEMP POTENTIAL TOTAL3 TEMPAVG
ENERGY: 10000 0.0000 0.0000 0.0000 0.0000 -3594.4768 506.0682 0.0000 0.0000 457.1682 -2631.2404 309.2171 -3088.4086 -2631.4984 309.2171
ENERGY: 15000 0.0000 0.0000 0.0000 0.0000 -2621.7821 251.3426 0.0000 0.0000 463.2351 -1907.2044 313.3206 -2370.4395 -1901.4318 308.9217
ENERGY: 20000 0.0000 0.0000 0.0000 0.0000 -2661.5599 293.1083 0.0000 0.0000 483.3349 -1885.1167 326.9156 -2368.4517 -1870.4325 316.7018
ENERGY: 25000 0.0000 0.0000 0.0000 0.0000 -2671.9948 275.7697 0.0000 0.0000 445.6899 -1950.5352 301.4534 -2396.2251 -1954.8878 311.8502
ENERGY: 30000 0.0000 0.0000 0.0000 0.0000 -2757.3792 307.9845 0.0000 0.0000 437.2594 -2012.1353 295.7513 -2449.3947 -2020.1432 298.3103
ENERGY: 35000 0.0000 0.0000 0.0000 0.0000 -2728.7864 329.3861 0.0000 0.0000 451.5915 -1947.8089 305.4451 -2399.4003 -1940.5337 316.4477
