Info: SIMULATION PARAMETERS:
Info: TIMESTEP               2
Info: NUMBER OF STEPS        0
Info: STEPS PER CYCLE        10
Info: PERIODIC CELL BASIS 1  30.626 0 0
Info: PERIODIC CELL BASIS 2  0 26.492 0
Info: PERIODIC CELL BASIS 3  0 0 26.587
Info: PERIODIC CELL CENTER   -0.122355 -0.039236 0.0826536
Info: WRAPPING ALL CLUSTERS AROUND PERIODIC BOUNDARIES ON OUTPUT.
Info: FIRST LDB TIMESTEP     50
Info: LAST LDB TIMESTEP     -1
Info: HOM BACKGROUND SCALING 1
Info: PME BACKGROUND SCALING 1
Info: MIN ATOMS PER PATCH    40
Info: INITIAL TEMPERATURE    310
Info: CENTER OF MASS MOVING INITIALLY? NO
Info: DIELECTRIC             1
Info: EXCLUDE                SCALED ONE-FOUR
Info: 1-4 ELECTROSTATICS SCALED BY 1
Info: MODIFIED 1-4 VDW PARAMETERS WILL BE USED
Info: DCD FILENAME           unsolvated.dcd
Info: DCD FREQUENCY          250
Info: DCD FIRST STEP         250
Info: DCD FILE WILL CONTAIN UNIT CELL DATA
Info: XST FILENAME           unsolvated.xst
Info: XST FREQUENCY          250
Info: NO VELOCITY DCD OUTPUT
Info: NO FORCE DCD OUTPUT
Info: OUTPUT FILENAME        unsolvated
Info: BINARY OUTPUT FILES WILL BE USED
Info: RESTART FILENAME       unsolvated.restart
Info: RESTART FREQUENCY      500
Info: BINARY RESTART FILES WILL BE USED
Info: SWITCHING ACTIVE
Info: SWITCHING ON           10
Info: SWITCHING OFF          12
Info: PAIRLIST DISTANCE      14
Info: PAIRLIST SHRINK RATE   0.01
Info: PAIRLIST GROW RATE     0.01
Info: PAIRLIST TRIGGER       0.3
Info: PAIRLISTS PER CYCLE    2
Info: PAIRLISTS ENABLED
Info: MARGIN                 0.495
Info: HYDROGEN GROUP CUTOFF  2.5
Info: PATCH DIMENSION        16.995
Info: ENERGY OUTPUT STEPS    100
Info: CROSSTERM ENERGY INCLUDED IN DIHEDRAL
Info: TIMING OUTPUT STEPS    1000
Info: PRESSURE OUTPUT STEPS  100
Info: LANGEVIN DYNAMICS ACTIVE
Info: LANGEVIN TEMPERATURE   310
Info: LANGEVIN USING BBK INTEGRATOR
Info: LANGEVIN DAMPING COEFFICIENT IS 1 INVERSE PS
Info: LANGEVIN DYNAMICS NOT APPLIED TO HYDROGENS
Info: LANGEVIN PISTON PRESSURE CONTROL ACTIVE
Info:        TARGET PRESSURE IS 1.01325 BAR
Info:     OSCILLATION PERIOD IS 100 FS
Info:             DECAY TIME IS 50 FS
Info:     PISTON TEMPERATURE IS 310 K
Info:       PRESSURE CONTROL IS GROUP-BASED
Info:    INITIAL STRAIN RATE IS 0 0 0
Info:       CELL FLUCTUATION IS ISOTROPIC
Info: PARTICLE MESH EWALD (PME) ACTIVE
Info: PME TOLERANCE               1e-06
Info: PME EWALD COEFFICIENT       0.257952
Info: PME INTERPOLATION ORDER     4
Info: PME GRID DIMENSIONS         32 28 28
Info: PME MAXIMUM GRID SPACING    1
Info: FULL ELECTROSTATIC EVALUATION FREQUENCY      2
Info: USING VERLET I (r-RESPA) MTS SCHEME.
Info: C1 SPLITTING OF LONG RANGE ELECTROSTATICS
Info: PLACING ATOMS IN PATCHES BY HYDROGEN GROUPS
Info: RIGID BONDS TO HYDROGEN : ALL
Info:         ERROR TOLERANCE : 1e-08
Info:          MAX ITERATIONS : 100
Info: RIGID WATER USING SETTLE ALGORITHM
Info: RANDOM NUMBER SEED     1540332939
Info: USE HYDROGEN BONDS?    NO
Info: COORDINATE PDB         /home/kushagra/Downloads/Pentane_autopsf.pdb
Info: STRUCTURE FILE         /home/kushagra/Downloads/Pentane_autopsf.psf
Info: PARAMETER file: CHARMM format!
Info: PARAMETERS             /home/kushagra/Downloads/SolvateFiles/toppar/par_all36m_prot.prm
Info: PARAMETERS             /home/kushagra/Downloads/SolvateFiles/toppar/par_all36_na.prm
Info: PARAMETERS             /home/kushagra/Downloads/SolvateFiles/toppar/par_all36_carb.prm
Info: PARAMETERS             /home/kushagra/Downloads/SolvateFiles/toppar/par_all36_lipid.prm
Info: PARAMETERS             /home/kushagra/Downloads/SolvateFiles/toppar/par_all36_cgenff.prm
Info: PARAMETERS             /home/kushagra/Downloads/SolvateFiles/toppar_water_ions.str
Info: USING ARITHMETIC MEAN TO COMBINE L-J SIGMA PARAMETERS
Info: SUMMARY OF PARAMETERS:
Info: 953 BONDS
Info: 2799 ANGLES
Info: 6874 DIHEDRAL
Info: 196 IMPROPER
Info: 6 CROSSTERM
Info: 355 VDW
Info: 94 VDW_PAIRS
Info: 0 NBTHOLE_PAIRS
Info: STRUCTURE SUMMARY:
Info: 17 ATOMS
Info: 16 BONDS
Info: 30 ANGLES
Info: 36 DIHEDRALS
Info: 0 IMPROPERS
Info: 0 CROSSTERMS
Info: 0 EXCLUSIONS
Info: 12 RIGID BONDS
Info: 39 DEGREES OF FREEDOM
Info: 5 HYDROGEN GROUPS
Info: 4 ATOMS IN LARGEST HYDROGEN GROUP
Info: 5 MIGRATION GROUPS
Info: 4 ATOMS IN LARGEST MIGRATION GROUP
Info: TOTAL MASS = 72.151 amu
Info: TOTAL CHARGE = 0 e
Info: MASS DENSITY = 0.00555427 g/cm^3
Info: ATOM DENSITY = 0.000788088 atoms/A^3
Info: ADDED 82 IMPLICIT EXCLUSIONS
Info: NONBONDED TABLE R-SQUARED SPACING: 0.0625
Info: NONBONDED TABLE SIZE: 769 POINTS
Info: REMOVING COM VELOCITY 0.0024237 1.60159 -0.0325581
TCL: Minimizing for 1000 steps
ETITLE: TS BOND ANGLE DIHED IMPRP ELECT VDW BOUNDARY MISC KINETIC TOTAL TEMP POTENTIAL TOTAL3 TEMPAVG PRESSURE GPRESSURE VOLUME PRESSAVG GPRESSAVG
ENERGY: 0 0.0997 1.0503 1.3964 0.0000 4.0953 -0.6736 0.0000 0.0000 0.0000 5.9681 0.0000 5.9681 5.9681 0.0000 91.6310 60.6381 21571.2019 91.6310 60.6381
ENERGY: 200 0.0148 0.3690 1.3846 0.0000 4.2268 -0.8781 0.0000 0.0000 0.0000 5.1172 0.0000 5.1172 5.1172 0.0000 15.5207 6.5263 21571.2019 15.5207 6.5263
ENERGY: 400 0.0156 0.3718 1.3815 0.0000 4.2242 -0.8793 0.0000 0.0000 0.0000 5.1138 0.0000 5.1138 5.1138 0.0000 14.7013 5.6283 21571.2019 14.7013 5.6283
ENERGY: 600 0.0286 0.4302 1.3844 0.0000 4.2341 -0.8840 0.0000 0.0000 0.0000 5.1932 0.0000 5.1932 5.1932 0.0000 8.9835 3.2209 21571.2019 8.9835 3.2209
ENERGY: 800 0.0172 0.3681 1.3819 0.0000 4.2279 -0.8809 0.0000 0.0000 0.0000 5.1142 0.0000 5.1142 5.1142 0.0000 13.8887 5.0905 21571.2019 13.8887 5.0905
ENERGY: 1000 0.0121 0.3782 1.3812 0.0000 4.2191 -0.8747 0.0000 0.0000 0.0000 5.1159 0.0000 5.1159 5.1159 0.0000 17.4919 7.7319 21571.2019 17.4919 7.7319
TCL: Running for 25000 steps
ETITLE: TS BOND ANGLE DIHED IMPRP ELECT VDW BOUNDARY MISC KINETIC TOTAL TEMP POTENTIAL TOTAL3 TEMPAVG PRESSURE GPRESSURE VOLUME PRESSAVG GPRESSAVG
ENERGY: 1000 0.0121 0.3782 1.3812 0.0000 4.2191 -0.8747 0.0000 0.0000 8.9228 14.0387 230.2653 5.1159 14.0358 230.2653 9.7014 10.0668 21571.2019 9.7014 10.0668
ENERGY: 1400 1.0335 4.5286 2.0900 0.0000 4.4055 -0.8440 0.0000 0.0000 5.5606 16.7742 143.4979 11.2136 16.7578 149.9217 -4.1212 -4.4350 74416.6979 1.2546 1.2647
ENERGY: 1800 4.6374 7.7474 1.7050 0.0000 4.0985 -0.8411 0.0000 0.0000 7.4026 24.7499 191.0347 17.3473 24.7239 223.6077 -296.9866 -291.7981 19077.8668 7.5866 7.3560
ENERGY: 2100 0.2942 9.9501 2.7443 0.0000 4.4221 -0.7041 0.0000 0.0000 8.2879 24.9944 213.8791 16.7066 25.0742 292.2742 -6.2792 -9.6977 15002.2056 -11.2217 -11.1962
ENERGY: 2500 0.5009 5.9879 2.4993 0.0000 4.0931 -0.6247 0.0000 0.0000 9.3354 21.7921 240.9127 12.4566 21.9161 235.3671 6.2727 5.6433 91840.4767 1.2391 1.2319
ENERGY: 2900 0.9345 5.5194 2.2249 0.0000 4.8564 -0.7986 0.0000 0.0000 10.5140 23.2505 271.3278 12.7365 23.3431 267.7781 -130.0448 -120.7425 11104.6106 7.7021 7.6569
